  0
SECTION
  2
ENTITIES
999
DXF created from EnergyPlus
999
Program Version,EnergyPlus, Version 8.4.0-09f5359d8a, YMD=2021.01.13 01:23
999
Polygon Action,TRIANGULATE3DFACE
999
Color Scheme,Default
999
Text - True North
  0
TEXT
  8
1
  6
Continuous
 62
  3
 10
      -11.00000
 20
        3.00000
 30
        0.10000
 40
 .25
  1
True North
 41
 0.0
  7
MONOTXT
210
0.0
220
0.0
230
1.0
999
Text - Building Title
  0
TEXT
  8
1
  6
Continuous
 62
  3
 10
      -14.00000
 20
       -1.00000
 30
        0.10000
 40
 .4
  1
Building - Building
 41
 0.0
  7
MONOTXT
210
0.0
220
0.0
230
1.0
999
North Arrow Stem
  0
3DFACE
  8
1
 62
  3
 10
      -10.00000
 20
        3.00000
 30
        0.10000
 11
      -10.00000
 21
        3.00000
 31
        0.00000
 12
      -10.00000
 22
        0.00000
 32
        0.00000
 13
      -10.00000
 23
        0.00000
 33
        0.10000
999
North Arrow Head 1
  0
3DFACE
  8
1
 62
  3
 10
      -10.00000
 20
        3.00000
 30
        0.10000
 11
      -10.00000
 21
        3.00000
 31
        0.00000
 12
      -10.50000
 22
        2.13398
 32
        0.00000
 13
      -10.50000
 23
        2.13398
 33
        0.10000
999
North Arrow Head 2
  0
3DFACE
  8
1
 62
  3
 10
      -10.00000
 20
        3.00000
 30
        0.10000
 11
      -10.00000
 21
        3.00000
 31
        0.00000
 12
       -9.50000
 22
        2.13398
 32
        0.00000
 13
       -9.50000
 23
        2.13398
 33
        0.10000
999
North Arrow Side 1
  0
3DFACE
  8
1
 62
  3
 10
      -10.50000
 20
        4.50000
 30
        0.10000
 11
      -10.50000
 21
        4.50000
 31
        0.00000
 12
      -10.50000
 22
        3.50000
 32
        0.00000
 13
      -10.50000
 23
        3.50000
 33
        0.10000
999
North Arrow Side 2
  0
3DFACE
  8
1
 62
  3
 10
      -10.50000
 20
        4.50000
 30
        0.10000
 11
      -10.50000
 21
        4.50000
 31
        0.00000
 12
       -9.50000
 22
        3.50000
 32
        0.00000
 13
       -9.50000
 23
        3.50000
 33
        0.10000
999
North Arrow Side 3
  0
3DFACE
  8
1
 62
  3
 10
       -9.50000
 20
        4.50000
 30
        0.10000
 11
       -9.50000
 21
        4.50000
 31
        0.00000
 12
       -9.50000
 22
        3.50000
 32
        0.00000
 13
       -9.50000
 23
        3.50000
 33
        0.10000
999
Zone Names
999
Zone=1:ZONE_PERI0
999
Zone=2:ZONE_PERI1
999
Zone=3:ZONE_PERI2
999
Zone=4:ZONE_PERI3
999
Zone=5:ZONE_CORE
999
ZONE_PERI0:ZONE_PERI0:F0
  0
3DFACE
  8
ZONE_PERI0
 62
 43
 10
       30.00000
 20
       20.00000
 30
        3.00000
 11
       30.00000
 21
       20.00000
 31
        0.00000
 12
       24.00000
 22
       14.00000
 32
        0.00000
 13
       24.00000
 23
       14.00000
 33
        3.00000
999
ZONE_PERI0:ZONE_PERI0:F1
  0
3DFACE
  8
ZONE_PERI0
 62
 43
 10
       24.00000
 20
       14.00000
 30
        3.00000
 11
       24.00000
 21
       14.00000
 31
        0.00000
 12
       24.00000
 22
        6.00000
 32
        0.00000
 13
       24.00000
 23
        6.00000
 33
        3.00000
999
ZONE_PERI0:ZONE_PERI0:F2
  0
3DFACE
  8
ZONE_PERI0
 62
 43
 10
       24.00000
 20
        6.00000
 30
        3.00000
 11
       24.00000
 21
        6.00000
 31
        0.00000
 12
       30.00000
 22
        0.00000
 32
        0.00000
 13
       30.00000
 23
        0.00000
 33
        3.00000
999
ZONE_PERI0:ZONE_PERI0:F3
  0
3DFACE
  8
ZONE_PERI0
 62
 43
 10
       30.00000
 20
        0.00000
 30
        3.00000
 11
       30.00000
 21
        0.00000
 31
        0.00000
 12
       30.00000
 22
       20.00000
 32
        0.00000
 13
       30.00000
 23
       20.00000
 33
        3.00000
999
ZONE_PERI0:ZONE_PERI0:F3:W0
  0
3DFACE
  8
ZONE_PERI0
 62
143
 10
       30.00000
 20
        1.88160
 30
        2.25000
 11
       30.00000
 21
        1.88160
 31
        0.75000
 12
       30.00000
 22
       18.11840
 32
        0.75000
 13
       30.00000
 23
       18.11840
 33
        2.25000
999
ZONE_PERI0:ZONE_PERI0:F4
  0
3DFACE
  8
ZONE_PERI0
 62
  8
 10
       30.00000
 20
       20.00000
 30
        0.00000
 11
       30.00000
 21
        0.00000
 31
        0.00000
 12
       24.00000
 22
        6.00000
 32
        0.00000
 13
       24.00000
 23
       14.00000
 33
        0.00000
999
ZONE_PERI0:ZONE_PERI0:F5
  0
3DFACE
  8
ZONE_PERI0
 62
 15
 10
       30.00000
 20
       20.00000
 30
        3.00000
 11
       24.00000
 21
       14.00000
 31
        3.00000
 12
       24.00000
 22
        6.00000
 32
        3.00000
 13
       30.00000
 23
        0.00000
 33
        3.00000
999
ZONE_PERI1:ZONE_PERI1:F0
  0
3DFACE
  8
ZONE_PERI1
 62
 43
 10
       30.00000
 20
       20.00000
 30
        3.00000
 11
       30.00000
 21
       20.00000
 31
        0.00000
 12
        0.00000
 22
       20.00000
 32
        0.00000
 13
        0.00000
 23
       20.00000
 33
        3.00000
999
ZONE_PERI1:ZONE_PERI1:F0:W0
  0
3DFACE
  8
ZONE_PERI1
 62
143
 10
       27.54140
 20
       20.00000
 30
        2.25000
 11
       27.54140
 21
       20.00000
 31
        0.75000
 12
        2.34930
 22
       20.00000
 32
        0.75000
 13
        2.34930
 23
       20.00000
 33
        2.25000
999
ZONE_PERI1:ZONE_PERI1:F1
  0
3DFACE
  8
ZONE_PERI1
 62
 43
 10
        0.00000
 20
       20.00000
 30
        3.00000
 11
        0.00000
 21
       20.00000
 31
        0.00000
 12
        6.00000
 22
       14.00000
 32
        0.00000
 13
        6.00000
 23
       14.00000
 33
        3.00000
999
ZONE_PERI1:ZONE_PERI1:F2
  0
3DFACE
  8
ZONE_PERI1
 62
 43
 10
        6.00000
 20
       14.00000
 30
        3.00000
 11
        6.00000
 21
       14.00000
 31
        0.00000
 12
       24.00000
 22
       14.00000
 32
        0.00000
 13
       24.00000
 23
       14.00000
 33
        3.00000
999
ZONE_PERI1:ZONE_PERI1:F3
  0
3DFACE
  8
ZONE_PERI1
 62
 43
 10
       24.00000
 20
       14.00000
 30
        3.00000
 11
       24.00000
 21
       14.00000
 31
        0.00000
 12
       30.00000
 22
       20.00000
 32
        0.00000
 13
       30.00000
 23
       20.00000
 33
        3.00000
999
ZONE_PERI1:ZONE_PERI1:F4
  0
3DFACE
  8
ZONE_PERI1
 62
  8
 10
       30.00000
 20
       20.00000
 30
        0.00000
 11
       24.00000
 21
       14.00000
 31
        0.00000
 12
        6.00000
 22
       14.00000
 32
        0.00000
 13
        0.00000
 23
       20.00000
 33
        0.00000
999
ZONE_PERI1:ZONE_PERI1:F5
  0
3DFACE
  8
ZONE_PERI1
 62
 15
 10
       30.00000
 20
       20.00000
 30
        3.00000
 11
        0.00000
 21
       20.00000
 31
        3.00000
 12
        6.00000
 22
       14.00000
 32
        3.00000
 13
       24.00000
 23
       14.00000
 33
        3.00000
999
ZONE_PERI2:ZONE_PERI2:F0
  0
3DFACE
  8
ZONE_PERI2
 62
 43
 10
       30.00000
 20
        0.00000
 30
        3.00000
 11
       30.00000
 21
        0.00000
 31
        0.00000
 12
       24.00000
 22
        6.00000
 32
        0.00000
 13
       24.00000
 23
        6.00000
 33
        3.00000
999
ZONE_PERI2:ZONE_PERI2:F1
  0
3DFACE
  8
ZONE_PERI2
 62
 43
 10
       24.00000
 20
        6.00000
 30
        3.00000
 11
       24.00000
 21
        6.00000
 31
        0.00000
 12
        6.00000
 22
        6.00000
 32
        0.00000
 13
        6.00000
 23
        6.00000
 33
        3.00000
999
ZONE_PERI2:ZONE_PERI2:F2
  0
3DFACE
  8
ZONE_PERI2
 62
 43
 10
        6.00000
 20
        6.00000
 30
        3.00000
 11
        6.00000
 21
        6.00000
 31
        0.00000
 12
        0.00000
 22
        0.00000
 32
        0.00000
 13
        0.00000
 23
        0.00000
 33
        3.00000
999
ZONE_PERI2:ZONE_PERI2:F3
  0
3DFACE
  8
ZONE_PERI2
 62
 43
 10
        0.00000
 20
        0.00000
 30
        3.00000
 11
        0.00000
 21
        0.00000
 31
        0.00000
 12
       30.00000
 22
        0.00000
 32
        0.00000
 13
       30.00000
 23
        0.00000
 33
        3.00000
999
ZONE_PERI2:ZONE_PERI2:F3:W0
  0
3DFACE
  8
ZONE_PERI2
 62
143
 10
        2.34930
 20
        0.00000
 30
        2.25000
 11
        2.34930
 21
        0.00000
 31
        0.75000
 12
       27.54140
 22
        0.00000
 32
        0.75000
 13
       27.54140
 23
        0.00000
 33
        2.25000
999
ZONE_PERI2:ZONE_PERI2:F4
  0
3DFACE
  8
ZONE_PERI2
 62
  8
 10
       30.00000
 20
        0.00000
 30
        0.00000
 11
        0.00000
 21
        0.00000
 31
        0.00000
 12
        6.00000
 22
        6.00000
 32
        0.00000
 13
       24.00000
 23
        6.00000
 33
        0.00000
999
ZONE_PERI2:ZONE_PERI2:F5
  0
3DFACE
  8
ZONE_PERI2
 62
 15
 10
       30.00000
 20
        0.00000
 30
        3.00000
 11
       24.00000
 21
        6.00000
 31
        3.00000
 12
        6.00000
 22
        6.00000
 32
        3.00000
 13
        0.00000
 23
        0.00000
 33
        3.00000
999
ZONE_PERI3:ZONE_PERI3:F0
  0
3DFACE
  8
ZONE_PERI3
 62
 43
 10
        0.00000
 20
       20.00000
 30
        3.00000
 11
        0.00000
 21
       20.00000
 31
        0.00000
 12
        0.00000
 22
        0.00000
 32
        0.00000
 13
        0.00000
 23
        0.00000
 33
        3.00000
999
ZONE_PERI3:ZONE_PERI3:F0:W0
  0
3DFACE
  8
ZONE_PERI3
 62
143
 10
        0.00000
 20
       18.11840
 30
        2.25000
 11
        0.00000
 21
       18.11840
 31
        0.75000
 12
        0.00000
 22
        1.88160
 32
        0.75000
 13
        0.00000
 23
        1.88160
 33
        2.25000
999
ZONE_PERI3:ZONE_PERI3:F1
  0
3DFACE
  8
ZONE_PERI3
 62
 43
 10
        0.00000
 20
        0.00000
 30
        3.00000
 11
        0.00000
 21
        0.00000
 31
        0.00000
 12
        6.00000
 22
        6.00000
 32
        0.00000
 13
        6.00000
 23
        6.00000
 33
        3.00000
999
ZONE_PERI3:ZONE_PERI3:F2
  0
3DFACE
  8
ZONE_PERI3
 62
 43
 10
        6.00000
 20
        6.00000
 30
        3.00000
 11
        6.00000
 21
        6.00000
 31
        0.00000
 12
        6.00000
 22
       14.00000
 32
        0.00000
 13
        6.00000
 23
       14.00000
 33
        3.00000
999
ZONE_PERI3:ZONE_PERI3:F3
  0
3DFACE
  8
ZONE_PERI3
 62
 43
 10
        6.00000
 20
       14.00000
 30
        3.00000
 11
        6.00000
 21
       14.00000
 31
        0.00000
 12
        0.00000
 22
       20.00000
 32
        0.00000
 13
        0.00000
 23
       20.00000
 33
        3.00000
999
ZONE_PERI3:ZONE_PERI3:F4
  0
3DFACE
  8
ZONE_PERI3
 62
  8
 10
        0.00000
 20
       20.00000
 30
        0.00000
 11
        6.00000
 21
       14.00000
 31
        0.00000
 12
        6.00000
 22
        6.00000
 32
        0.00000
 13
        0.00000
 23
        0.00000
 33
        0.00000
999
ZONE_PERI3:ZONE_PERI3:F5
  0
3DFACE
  8
ZONE_PERI3
 62
 15
 10
        0.00000
 20
       20.00000
 30
        3.00000
 11
        0.00000
 21
        0.00000
 31
        3.00000
 12
        6.00000
 22
        6.00000
 32
        3.00000
 13
        6.00000
 23
       14.00000
 33
        3.00000
999
ZONE_CORE:ZONE_CORE:F0
  0
3DFACE
  8
ZONE_CORE
 62
 43
 10
        6.00000
 20
        6.00000
 30
        3.00000
 11
        6.00000
 21
        6.00000
 31
        0.00000
 12
       24.00000
 22
        6.00000
 32
        0.00000
 13
       24.00000
 23
        6.00000
 33
        3.00000
999
ZONE_CORE:ZONE_CORE:F1
  0
3DFACE
  8
ZONE_CORE
 62
 43
 10
       24.00000
 20
        6.00000
 30
        3.00000
 11
       24.00000
 21
        6.00000
 31
        0.00000
 12
       24.00000
 22
       14.00000
 32
        0.00000
 13
       24.00000
 23
       14.00000
 33
        3.00000
999
ZONE_CORE:ZONE_CORE:F2
  0
3DFACE
  8
ZONE_CORE
 62
 43
 10
       24.00000
 20
       14.00000
 30
        3.00000
 11
       24.00000
 21
       14.00000
 31
        0.00000
 12
        6.00000
 22
       14.00000
 32
        0.00000
 13
        6.00000
 23
       14.00000
 33
        3.00000
999
ZONE_CORE:ZONE_CORE:F3
  0
3DFACE
  8
ZONE_CORE
 62
 43
 10
        6.00000
 20
       14.00000
 30
        3.00000
 11
        6.00000
 21
       14.00000
 31
        0.00000
 12
        6.00000
 22
        6.00000
 32
        0.00000
 13
        6.00000
 23
        6.00000
 33
        3.00000
999
ZONE_CORE:ZONE_CORE:F4
  0
3DFACE
  8
ZONE_CORE
 62
  8
 10
        6.00000
 20
        6.00000
 30
        0.00000
 11
        6.00000
 21
       14.00000
 31
        0.00000
 12
       24.00000
 22
       14.00000
 32
        0.00000
 13
       24.00000
 23
        6.00000
 33
        0.00000
999
ZONE_CORE:ZONE_CORE:F5
  0
3DFACE
  8
ZONE_CORE
 62
 15
 10
        6.00000
 20
        6.00000
 30
        3.00000
 11
       24.00000
 21
        6.00000
 31
        3.00000
 12
       24.00000
 22
       14.00000
 32
        3.00000
 13
        6.00000
 23
       14.00000
 33
        3.00000
999
ZONE_PERI0:DayRefPt:1
  0
CIRCLE
  8
ZONE_PERI0
 62
 10
 10
       27.59423
 20
       10.00000
 30
        0.85000
 40
        0.20000
999
ZONE_PERI1:DayRefPt:1
  0
CIRCLE
  8
ZONE_PERI1
 62
 10
 10
       15.00000
 20
       17.37274
 30
        0.85000
 40
        0.20000
999
ZONE_PERI2:DayRefPt:1
  0
CIRCLE
  8
ZONE_PERI2
 62
 10
 10
       15.00000
 20
        2.62726
 30
        0.85000
 40
        0.20000
999
ZONE_PERI3:DayRefPt:1
  0
CIRCLE
  8
ZONE_PERI3
 62
 10
 10
        2.40577
 20
       10.00000
 30
        0.85000
 40
        0.20000
999
ZONE_CORE:DayRefPt:1
  0
CIRCLE
  8
ZONE_CORE
 62
 10
 10
       15.00000
 20
       10.00000
 30
        0.85000
 40
        0.20000
  0
ENDSEC
  0
EOF
